<?xml version='1.0' encoding='utf-8'?>
<!DOCTYPE population SYSTEM "http://matsim.org/files/dtd/population_v6.dtd">
<!--Created 2024-05-23 15:41:24.119104-->
<population><person id="agent_0">
  <attributes>
    <attribute class="java.lang.String" name="subpopulation">medium income</attribute>
    <attribute class="java.lang.String" name="gender">female</attribute>
    <attribute class="java.lang.String" name="age">40 to 49</attribute>
    <attribute class="java.lang.String" name="household_zone">Wandsworth 001B</attribute>
    <attribute class="java.lang.String" name="household_LSOA">E02000923</attribute>
    <attribute class="java.lang.String" name="household_LAD">Wandsworth</attribute>
    <attribute class="java.lang.Boolean" name="hasLicence">True</attribute>
    <attribute class="java.lang.Boolean" name="hasBike">True</attribute>
    <attribute class="java.lang.Boolean" name="carAvail">True</attribute>
    <attribute class="java.lang.String" name="hid">agent_0</attribute>
  </attributes>
  <plan selected="yes">
    <activity type="home" start_time="00:00:00" end_time="07:58:00" link="8446" x="528634.0" y="176896.0"/>
    <leg mode="car" trav_time="00:25:00"/>
    <activity type="leisure" start_time="08:23:00" end_time="09:23:00" link="8446" x="526119.0" y="179603.0"/>
    <leg mode="walk" trav_time="00:17:00"/>
    <activity type="education" start_time="09:40:00" end_time="10:40:00" link="8446" x="529387.0" y="176668.0"/>
    <leg mode="walk" trav_time="00:41:00"/>
    <activity type="gym" start_time="11:21:00" end_time="12:21:00" link="8446" x="528868.0" y="178615.0"/>
    <leg mode="walk" trav_time="01:05:00"/>
    <activity type="medical" start_time="13:26:00" end_time="14:26:00" link="8446" x="526206.0" y="179283.0"/>
    <leg mode="rail" trav_time="00:34:00"/>
    <activity type="home" start_time="15:00:00" end_time="24:00:00" link="8446" x="528634.0" y="176896.0"/>
  </plan>
</person>
<person id="agent_1">
  <attributes>
    <attribute class="java.lang.String" name="subpopulation">medium income</attribute>
    <attribute class="java.lang.String" name="gender">female</attribute>
    <attribute class="java.lang.String" name="age">85  and over</attribute>
    <attribute class="java.lang.String" name="household_zone">Westminster 021B</attribute>
    <attribute class="java.lang.String" name="household_LSOA">E02000980</attribute>
    <attribute class="java.lang.String" name="household_LAD">Westminster</attribute>
    <attribute class="java.lang.Boolean" name="hasLicence">True</attribute>
    <attribute class="java.lang.Boolean" name="hasBike">True</attribute>
    <attribute class="java.lang.Boolean" name="carAvail">True</attribute>
    <attribute class="java.lang.String" name="hid">agent_1</attribute>
  </attributes>
  <plan selected="yes">
    <activity type="home" start_time="00:00:00" end_time="07:54:00" link="8446" x="529822.0" y="178905.0"/>
    <leg mode="ferry" trav_time="01:06:00"/>
    <activity type="park" start_time="09:00:00" end_time="10:00:00" link="8446" x="525198.0" y="179459.0"/>
    <leg mode="car" trav_time="00:39:00"/>
    <activity type="work" start_time="10:39:00" end_time="14:39:00" link="8446" x="527139.0" y="176879.0"/>
    <leg mode="ferry" trav_time="00:53:00"/>
    <activity type="pub" start_time="15:32:00" end_time="16:32:00" link="8446" x="530643.0" y="176913.0"/>
    <leg mode="subway" trav_time="01:14:00"/>
    <activity type="medical" start_time="17:46:00" end_time="18:46:00" link="8446" x="529517.0" y="175615.0"/>
    <leg mode="walk" trav_time="00:40:00"/>
    <activity type="home" start_time="19:26:00" end_time="24:00:00" link="8446" x="529822.0" y="178905.0"/>
  </plan>
</person>
<person id="agent_2">
  <attributes>
    <attribute class="java.lang.String" name="subpopulation">high income</attribute>
    <attribute class="java.lang.String" name="gender">male</attribute>
    <attribute class="java.lang.String" name="age">21 to 25</attribute>
    <attribute class="java.lang.String" name="household_zone">Wandsworth 004C</attribute>
    <attribute class="java.lang.String" name="household_LSOA">E02000926</attribute>
    <attribute class="java.lang.String" name="household_LAD">Wandsworth</attribute>
    <attribute class="java.lang.Boolean" name="hasLicence">True</attribute>
    <attribute class="java.lang.Boolean" name="hasBike">True</attribute>
    <attribute class="java.lang.Boolean" name="carAvail">True</attribute>
    <attribute class="java.lang.String" name="hid">agent_2</attribute>
  </attributes>
  <plan selected="yes">
    <activity type="home" start_time="00:00:00" end_time="07:47:00" link="8446" x="527078.0" y="176482.0"/>
    <leg mode="bike" trav_time="01:16:00"/>
    <activity type="work" start_time="09:03:00" end_time="13:03:00" link="8446" x="526859.0" y="178974.0"/>
    <leg mode="rail" trav_time="01:04:00"/>
    <activity type="medical" start_time="14:07:00" end_time="16:07:00" link="8446" x="528103.0" y="176433.0"/>
    <leg mode="car" trav_time="01:29:00"/>
    <activity type="home" start_time="17:36:00" end_time="24:00:00" link="8446" x="527078.0" y="176482.0"/>
  </plan>
</person>
<person id="agent_3">
  <attributes>
    <attribute class="java.lang.String" name="subpopulation">medium income</attribute>
    <attribute class="java.lang.String" name="gender">female</attribute>
    <attribute class="java.lang.String" name="age">30 to 39</attribute>
    <attribute class="java.lang.String" name="household_zone">Richmond upon Thames 001E</attribute>
    <attribute class="java.lang.String" name="household_LSOA">E02000784</attribute>
    <attribute class="java.lang.String" name="household_LAD">Richmond upon Thames</attribute>
    <attribute class="java.lang.Boolean" name="hasLicence">True</attribute>
    <attribute class="java.lang.Boolean" name="hasBike">True</attribute>
    <attribute class="java.lang.Boolean" name="carAvail">True</attribute>
    <attribute class="java.lang.String" name="hid">agent_3</attribute>
  </attributes>
  <plan selected="yes">
    <activity type="home" start_time="00:00:00" end_time="07:22:00" link="8446" x="523088.0" y="177799.0"/>
    <leg mode="subway" trav_time="01:09:00"/>
    <activity type="gym" start_time="08:31:00" end_time="10:31:00" link="8446" x="524273.0" y="177104.0"/>
    <leg mode="rail" trav_time="00:54:00"/>
    <activity type="work" start_time="11:25:00" end_time="15:25:00" link="8446" x="527216.0" y="175730.0"/>
    <leg mode="ferry" trav_time="00:24:00"/>
    <activity type="medical" start_time="15:49:00" end_time="17:49:00" link="8446" x="523841.0" y="174843.0"/>
    <leg mode="car" trav_time="00:18:00"/>
    <activity type="pub" start_time="18:07:00" end_time="20:07:00" link="8446" x="523688.0" y="178805.0"/>
    <leg mode="bus" trav_time="01:26:00"/>
    <activity type="home" start_time="21:33:00" end_time="24:00:00" link="8446" x="523088.0" y="177799.0"/>
  </plan>
</person>
<person id="agent_4">
  <attributes>
    <attribute class="java.lang.String" name="subpopulation">low income</attribute>
    <attribute class="java.lang.String" name="gender">male</attribute>
    <attribute class="java.lang.String" name="age">16 to 20</attribute>
    <attribute class="java.lang.String" name="household_zone">Kensington and Chelsea 016C</attribute>
    <attribute class="java.lang.String" name="household_LSOA">E02000592</attribute>
    <attribute class="java.lang.String" name="household_LAD">Kensington and Chelsea</attribute>
    <attribute class="java.lang.Boolean" name="hasLicence">True</attribute>
    <attribute class="java.lang.Boolean" name="hasBike">True</attribute>
    <attribute class="java.lang.Boolean" name="carAvail">True</attribute>
    <attribute class="java.lang.String" name="hid">agent_4</attribute>
  </attributes>
  <plan selected="yes">
    <activity type="home" start_time="00:00:00" end_time="08:28:00" link="8446" x="526019.0" y="178825.0"/>
    <leg mode="ferry" trav_time="00:52:00"/>
    <activity type="shop" start_time="09:20:00" end_time="10:20:00" link="8446" x="529625.0" y="178286.0"/>
    <leg mode="bike" trav_time="00:37:00"/>
    <activity type="leisure" start_time="10:57:00" end_time="11:57:00" link="8446" x="525649.0" y="179758.0"/>
    <leg mode="walk" trav_time="00:51:00"/>
    <activity type="medical" start_time="12:48:00" end_time="13:48:00" link="8446" x="528031.0" y="174505.0"/>
    <leg mode="walk" trav_time="00:53:00"/>
    <activity type="home" start_time="14:41:00" end_time="24:00:00" link="8446" x="526019.0" y="178825.0"/>
  </plan>
</person>
<person id="agent_5">
  <attributes>
    <attribute class="java.lang.String" name="subpopulation">low income</attribute>
    <attribute class="java.lang.String" name="gender">male</attribute>
    <attribute class="java.lang.String" name="age">40 to 49</attribute>
    <attribute class="java.lang.String" name="household_zone">Wandsworth 012E</attribute>
    <attribute class="java.lang.String" name="household_LSOA">E02000934</attribute>
    <attribute class="java.lang.String" name="household_LAD">Wandsworth</attribute>
    <attribute class="java.lang.Boolean" name="hasLicence">True</attribute>
    <attribute class="java.lang.Boolean" name="hasBike">True</attribute>
    <attribute class="java.lang.Boolean" name="carAvail">True</attribute>
    <attribute class="java.lang.String" name="hid">agent_5</attribute>
  </attributes>
  <plan selected="yes">
    <activity type="home" start_time="00:00:00" end_time="06:37:00" link="8446" x="527291.0" y="175195.0"/>
    <leg mode="car" trav_time="01:24:00"/>
    <activity type="pub" start_time="08:01:00" end_time="09:01:00" link="8446" x="524424.0" y="175859.0"/>
    <leg mode="walk" trav_time="00:18:00"/>
    <activity type="home" start_time="09:19:00" end_time="24:00:00" link="8446" x="527291.0" y="175195.0"/>
  </plan>
</person>
<person id="agent_6">
  <attributes>
    <attribute class="java.lang.String" name="subpopulation">high income</attribute>
    <attribute class="java.lang.String" name="gender">male</attribute>
    <attribute class="java.lang.String" name="age">65 to 69</attribute>
    <attribute class="java.lang.String" name="household_zone">Westminster 020C</attribute>
    <attribute class="java.lang.String" name="household_LSOA">E02000979</attribute>
    <attribute class="java.lang.String" name="household_LAD">Westminster</attribute>
    <attribute class="java.lang.Boolean" name="hasLicence">True</attribute>
    <attribute class="java.lang.Boolean" name="hasBike">True</attribute>
    <attribute class="java.lang.Boolean" name="carAvail">True</attribute>
    <attribute class="java.lang.String" name="hid">agent_6</attribute>
  </attributes>
  <plan selected="yes">
    <activity type="home" start_time="00:00:00" end_time="08:29:00" link="8446" x="530025.0" y="179234.0"/>
    <leg mode="bus" trav_time="00:56:00"/>
    <activity type="shop" start_time="09:25:00" end_time="10:25:00" link="8446" x="527982.0" y="178876.0"/>
    <leg mode="bus" trav_time="00:32:00"/>
    <activity type="home" start_time="10:57:00" end_time="24:00:00" link="8446" x="530025.0" y="179234.0"/>
  </plan>
</person>
<person id="agent_7">
  <attributes>
    <attribute class="java.lang.String" name="subpopulation">low income</attribute>
    <attribute class="java.lang.String" name="gender">female</attribute>
    <attribute class="java.lang.String" name="age">30 to 39</attribute>
    <attribute class="java.lang.String" name="household_zone">Westminster 022A</attribute>
    <attribute class="java.lang.String" name="household_LSOA">E02000981</attribute>
    <attribute class="java.lang.String" name="household_LAD">Westminster</attribute>
    <attribute class="java.lang.Boolean" name="hasLicence">True</attribute>
    <attribute class="java.lang.Boolean" name="hasBike">True</attribute>
    <attribute class="java.lang.Boolean" name="carAvail">True</attribute>
    <attribute class="java.lang.String" name="hid">agent_7</attribute>
  </attributes>
  <plan selected="yes">
    <activity type="home" start_time="00:00:00" end_time="07:15:00" link="8446" x="529405.0" y="178376.0"/>
    <leg mode="bus" trav_time="00:13:00"/>
    <activity type="work" start_time="07:28:00" end_time="10:28:00" link="8446" x="523089.0" y="177800.0"/>
    <leg mode="bus" trav_time="00:21:00"/>
    <activity type="gym" start_time="10:49:00" end_time="12:49:00" link="8446" x="525790.0" y="174133.0"/>
    <leg mode="car" trav_time="00:10:00"/>
    <activity type="medical" start_time="12:59:00" end_time="14:59:00" link="8446" x="525783.0" y="174151.0"/>
    <leg mode="ferry" trav_time="00:43:00"/>
    <activity type="gym" start_time="15:42:00" end_time="17:42:00" link="8446" x="524197.0" y="176783.0"/>
    <leg mode="car" trav_time="01:07:00"/>
    <activity type="home" start_time="18:49:00" end_time="24:00:00" link="8446" x="529405.0" y="178376.0"/>
  </plan>
</person>
<person id="agent_8">
  <attributes>
    <attribute class="java.lang.String" name="subpopulation">medium income</attribute>
    <attribute class="java.lang.String" name="gender">female</attribute>
    <attribute class="java.lang.String" name="age">16 to 20</attribute>
    <attribute class="java.lang.String" name="household_zone">Wandsworth 001B</attribute>
    <attribute class="java.lang.String" name="household_LSOA">E02000923</attribute>
    <attribute class="java.lang.String" name="household_LAD">Wandsworth</attribute>
    <attribute class="java.lang.Boolean" name="hasLicence">True</attribute>
    <attribute class="java.lang.Boolean" name="hasBike">True</attribute>
    <attribute class="java.lang.Boolean" name="carAvail">True</attribute>
    <attribute class="java.lang.String" name="hid">agent_8</attribute>
  </attributes>
  <plan selected="yes">
    <activity type="home" start_time="00:00:00" end_time="06:04:00" link="8446" x="528485.0" y="176834.0"/>
    <leg mode="bike" trav_time="01:23:00"/>
    <activity type="gym" start_time="07:27:00" end_time="08:27:00" link="8446" x="524697.0" y="177018.0"/>
    <leg mode="ferry" trav_time="01:21:00"/>
    <activity type="shop" start_time="09:48:00" end_time="10:48:00" link="8446" x="527041.0" y="177532.0"/>
    <leg mode="subway" trav_time="00:28:00"/>
    <activity type="home" start_time="11:16:00" end_time="24:00:00" link="8446" x="528485.0" y="176834.0"/>
  </plan>
</person>
<person id="agent_9">
  <attributes>
    <attribute class="java.lang.String" name="subpopulation">low income</attribute>
    <attribute class="java.lang.String" name="gender">female</attribute>
    <attribute class="java.lang.String" name="age">40 to 49</attribute>
    <attribute class="java.lang.String" name="household_zone">Westminster 021A</attribute>
    <attribute class="java.lang.String" name="household_LSOA">E02000980</attribute>
    <attribute class="java.lang.String" name="household_LAD">Westminster</attribute>
    <attribute class="java.lang.Boolean" name="hasLicence">True</attribute>
    <attribute class="java.lang.Boolean" name="hasBike">True</attribute>
    <attribute class="java.lang.Boolean" name="carAvail">True</attribute>
    <attribute class="java.lang.String" name="hid">agent_9</attribute>
  </attributes>
  <plan selected="yes">
    <activity type="home" start_time="00:00:00" end_time="06:39:00" link="8446" x="529523.0" y="178510.0"/>
    <leg mode="subway" trav_time="00:50:00"/>
    <activity type="leisure" start_time="07:29:00" end_time="09:29:00" link="8446" x="524280.0" y="175534.0"/>
    <leg mode="rail" trav_time="00:57:00"/>
    <activity type="park" start_time="10:26:00" end_time="12:26:00" link="8446" x="527795.0" y="179627.0"/>
    <leg mode="car" trav_time="00:50:00"/>
    <activity type="medical" start_time="13:16:00" end_time="15:16:00" link="8446" x="527344.0" y="176331.0"/>
    <leg mode="ferry" trav_time="00:58:00"/>
    <activity type="home" start_time="16:14:00" end_time="24:00:00" link="8446" x="529523.0" y="178510.0"/>
  </plan>
</person>
<person id="agent_10">
  <attributes>
    <attribute class="java.lang.String" name="subpopulation">medium income</attribute>
    <attribute class="java.lang.String" name="gender">male</attribute>
    <attribute class="java.lang.String" name="age">0 to 4</attribute>
    <attribute class="java.lang.String" name="household_zone">Kensington and Chelsea 016B</attribute>
    <attribute class="java.lang.String" name="household_LSOA">E02000592</attribute>
    <attribute class="java.lang.String" name="household_LAD">Kensington and Chelsea</attribute>
    <attribute class="java.lang.Boolean" name="hasLicence">True</attribute>
    <attribute class="java.lang.Boolean" name="hasBike">True</attribute>
    <attribute class="java.lang.Boolean" name="carAvail">True</attribute>
    <attribute class="java.lang.String" name="hid">agent_10</attribute>
  </attributes>
  <plan selected="yes">
    <activity type="home" start_time="00:00:00" end_time="06:50:00" link="8446" x="526813.0" y="178645.0"/>
    <leg mode="ferry" trav_time="00:45:00"/>
    <activity type="medical" start_time="07:35:00" end_time="09:35:00" link="8446" x="525825.0" y="175712.0"/>
    <leg mode="walk" trav_time="00:27:00"/>
    <activity type="park" start_time="10:02:00" end_time="12:02:00" link="8446" x="529425.0" y="176214.0"/>
    <leg mode="rail" trav_time="01:10:00"/>
    <activity type="home" start_time="13:12:00" end_time="24:00:00" link="8446" x="526813.0" y="178645.0"/>
  </plan>
</person>
<person id="agent_11">
  <attributes>
    <attribute class="java.lang.String" name="subpopulation">low income</attribute>
    <attribute class="java.lang.String" name="gender">female</attribute>
    <attribute class="java.lang.String" name="age">5 to 10</attribute>
    <attribute class="java.lang.String" name="household_zone">Wandsworth 001B</attribute>
    <attribute class="java.lang.String" name="household_LSOA">E02000923</attribute>
    <attribute class="java.lang.String" name="household_LAD">Wandsworth</attribute>
    <attribute class="java.lang.Boolean" name="hasLicence">True</attribute>
    <attribute class="java.lang.Boolean" name="hasBike">True</attribute>
    <attribute class="java.lang.Boolean" name="carAvail">True</attribute>
    <attribute class="java.lang.String" name="hid">agent_11</attribute>
  </attributes>
  <plan selected="yes">
    <activity type="home" start_time="00:00:00" end_time="06:34:00" link="8446" x="528649.0" y="176950.0"/>
    <leg mode="ferry" trav_time="00:35:00"/>
    <activity type="pub" start_time="07:09:00" end_time="08:09:00" link="8446" x="523927.0" y="176497.0"/>
    <leg mode="ferry" trav_time="01:24:00"/>
    <activity type="park" start_time="09:33:00" end_time="10:33:00" link="8446" x="524503.0" y="178536.0"/>
    <leg mode="car" trav_time="01:11:00"/>
    <activity type="medical" start_time="11:44:00" end_time="12:44:00" link="8446" x="526329.0" y="178248.0"/>
    <leg mode="bike" trav_time="00:51:00"/>
    <activity type="home" start_time="13:35:00" end_time="24:00:00" link="8446" x="528649.0" y="176950.0"/>
  </plan>
</person>
<person id="agent_12">
  <attributes>
    <attribute class="java.lang.String" name="subpopulation">medium income</attribute>
    <attribute class="java.lang.String" name="gender">female</attribute>
    <attribute class="java.lang.String" name="age">65 to 69</attribute>
    <attribute class="java.lang.String" name="household_zone">Westminster 020E</attribute>
    <attribute class="java.lang.String" name="household_LSOA">E02000979</attribute>
    <attribute class="java.lang.String" name="household_LAD">Westminster</attribute>
    <attribute class="java.lang.Boolean" name="hasLicence">True</attribute>
    <attribute class="java.lang.Boolean" name="hasBike">True</attribute>
    <attribute class="java.lang.Boolean" name="carAvail">True</attribute>
    <attribute class="java.lang.String" name="hid">agent_12</attribute>
  </attributes>
  <plan selected="yes">
    <activity type="home" start_time="00:00:00" end_time="07:24:00" link="8446" x="529389.0" y="179134.0"/>
    <leg mode="bus" trav_time="00:42:00"/>
    <activity type="work" start_time="08:06:00" end_time="12:06:00" link="8446" x="527471.0" y="177223.0"/>
    <leg mode="car" trav_time="00:47:00"/>
    <activity type="home" start_time="12:53:00" end_time="24:00:00" link="8446" x="529389.0" y="179134.0"/>
  </plan>
</person>
<person id="agent_13">
  <attributes>
    <attribute class="java.lang.String" name="subpopulation">low income</attribute>
    <attribute class="java.lang.String" name="gender">female</attribute>
    <attribute class="java.lang.String" name="age">5 to 10</attribute>
    <attribute class="java.lang.String" name="household_zone">Hammersmith and Fulham 016B</attribute>
    <attribute class="java.lang.String" name="household_LSOA">E02000387</attribute>
    <attribute class="java.lang.String" name="household_LAD">Hammersmith and Fulham</attribute>
    <attribute class="java.lang.Boolean" name="hasLicence">True</attribute>
    <attribute class="java.lang.Boolean" name="hasBike">True</attribute>
    <attribute class="java.lang.Boolean" name="carAvail">True</attribute>
    <attribute class="java.lang.String" name="hid">agent_13</attribute>
  </attributes>
  <plan selected="yes">
    <activity type="home" start_time="00:00:00" end_time="07:29:00" link="8446" x="524026.0" y="177601.0"/>
    <leg mode="bike" trav_time="01:15:00"/>
    <activity type="pub" start_time="08:44:00" end_time="10:44:00" link="8446" x="526387.0" y="174523.0"/>
    <leg mode="rail" trav_time="00:16:00"/>
    <activity type="education" start_time="11:00:00" end_time="13:00:00" link="8446" x="529141.0" y="178644.0"/>
    <leg mode="bus" trav_time="00:39:00"/>
    <activity type="shop" start_time="13:39:00" end_time="15:39:00" link="8446" x="523075.0" y="177127.0"/>
    <leg mode="ferry" trav_time="01:17:00"/>
    <activity type="gym" start_time="16:56:00" end_time="18:56:00" link="8446" x="522801.0" y="176043.0"/>
    <leg mode="rail" trav_time="00:31:00"/>
    <activity type="home" start_time="19:27:00" end_time="24:00:00" link="8446" x="524026.0" y="177601.0"/>
  </plan>
</person>
<person id="agent_14">
  <attributes>
    <attribute class="java.lang.String" name="subpopulation">high income</attribute>
    <attribute class="java.lang.String" name="gender">male</attribute>
    <attribute class="java.lang.String" name="age">85  and over</attribute>
    <attribute class="java.lang.String" name="household_zone">Hammersmith and Fulham 013C</attribute>
    <attribute class="java.lang.String" name="household_LSOA">E02000384</attribute>
    <attribute class="java.lang.String" name="household_LAD">Hammersmith and Fulham</attribute>
    <attribute class="java.lang.Boolean" name="hasLicence">True</attribute>
    <attribute class="java.lang.Boolean" name="hasBike">True</attribute>
    <attribute class="java.lang.Boolean" name="carAvail">True</attribute>
    <attribute class="java.lang.String" name="hid">agent_14</attribute>
  </attributes>
  <plan selected="yes">
    <activity type="home" start_time="00:00:00" end_time="07:07:00" link="8446" x="523614.0" y="178703.0"/>
    <leg mode="subway" trav_time="00:36:00"/>
    <activity type="shop" start_time="07:43:00" end_time="09:43:00" link="8446" x="524186.0" y="179078.0"/>
    <leg mode="rail" trav_time="00:22:00"/>
    <activity type="work" start_time="10:05:00" end_time="14:05:00" link="8446" x="530424.0" y="175449.0"/>
    <leg mode="bus" trav_time="00:48:00"/>
    <activity type="home" start_time="14:53:00" end_time="24:00:00" link="8446" x="523614.0" y="178703.0"/>
  </plan>
</person>
<person id="agent_15">
  <attributes>
    <attribute class="java.lang.String" name="subpopulation">high income</attribute>
    <attribute class="java.lang.String" name="gender">female</attribute>
    <attribute class="java.lang.String" name="age">75 to 79</attribute>
    <attribute class="java.lang.String" name="household_zone">Hammersmith and Fulham 010D</attribute>
    <attribute class="java.lang.String" name="household_LSOA">E02000381</attribute>
    <attribute class="java.lang.String" name="household_LAD">Hammersmith and Fulham</attribute>
    <attribute class="java.lang.Boolean" name="hasLicence">True</attribute>
    <attribute class="java.lang.Boolean" name="hasBike">True</attribute>
    <attribute class="java.lang.Boolean" name="carAvail">True</attribute>
    <attribute class="java.lang.String" name="hid">agent_15</attribute>
  </attributes>
  <plan selected="yes">
    <activity type="home" start_time="00:00:00" end_time="07:03:00" link="8446" x="523924.0" y="179001.0"/>
    <leg mode="ferry" trav_time="01:16:00"/>
    <activity type="leisure" start_time="08:19:00" end_time="09:19:00" link="8446" x="526596.0" y="178594.0"/>
    <leg mode="subway" trav_time="00:14:00"/>
    <activity type="shop" start_time="09:33:00" end_time="10:33:00" link="8446" x="526241.0" y="177793.0"/>
    <leg mode="bus" trav_time="00:54:00"/>
    <activity type="home" start_time="11:27:00" end_time="24:00:00" link="8446" x="523924.0" y="179001.0"/>
  </plan>
</person>
<person id="agent_16">
  <attributes>
    <attribute class="java.lang.String" name="subpopulation">high income</attribute>
    <attribute class="java.lang.String" name="gender">male</attribute>
    <attribute class="java.lang.String" name="age">80 to 84</attribute>
    <attribute class="java.lang.String" name="household_zone">Kensington and Chelsea 013C</attribute>
    <attribute class="java.lang.String" name="household_LSOA">E02000589</attribute>
    <attribute class="java.lang.String" name="household_LAD">Kensington and Chelsea</attribute>
    <attribute class="java.lang.Boolean" name="hasLicence">True</attribute>
    <attribute class="java.lang.Boolean" name="hasBike">True</attribute>
    <attribute class="java.lang.Boolean" name="carAvail">True</attribute>
    <attribute class="java.lang.String" name="hid">agent_16</attribute>
  </attributes>
  <plan selected="yes">
    <activity type="home" start_time="00:00:00" end_time="07:13:00" link="8446" x="525833.0" y="178773.0"/>
    <leg mode="ferry" trav_time="00:51:00"/>
    <activity type="pub" start_time="08:04:00" end_time="09:04:00" link="8446" x="525785.0" y="174214.0"/>
    <leg mode="bike" trav_time="00:18:00"/>
    <activity type="education" start_time="09:22:00" end_time="10:22:00" link="8446" x="529271.0" y="178103.0"/>
    <leg mode="bus" trav_time="00:26:00"/>
    <activity type="gym" start_time="10:48:00" end_time="11:48:00" link="8446" x="527449.0" y="174907.0"/>
    <leg mode="bus" trav_time="00:10:00"/>
    <activity type="home" start_time="11:58:00" end_time="24:00:00" link="8446" x="525833.0" y="178773.0"/>
  </plan>
</person>
<person id="agent_17">
  <attributes>
    <attribute class="java.lang.String" name="subpopulation">medium income</attribute>
    <attribute class="java.lang.String" name="gender">female</attribute>
    <attribute class="java.lang.String" name="age">80 to 84</attribute>
    <attribute class="java.lang.String" name="household_zone">Kensington and Chelsea 019B</attribute>
    <attribute class="java.lang.String" name="household_LSOA">E02000595</attribute>
    <attribute class="java.lang.String" name="household_LAD">Kensington and Chelsea</attribute>
    <attribute class="java.lang.Boolean" name="hasLicence">True</attribute>
    <attribute class="java.lang.Boolean" name="hasBike">True</attribute>
    <attribute class="java.lang.Boolean" name="carAvail">True</attribute>
    <attribute class="java.lang.String" name="hid">agent_17</attribute>
  </attributes>
  <plan selected="yes">
    <activity type="home" start_time="00:00:00" end_time="07:18:00" link="8446" x="526994.0" y="177757.0"/>
    <leg mode="walk" trav_time="00:44:00"/>
    <activity type="education" start_time="08:02:00" end_time="10:02:00" link="8446" x="527869.0" y="175546.0"/>
    <leg mode="subway" trav_time="01:27:00"/>
    <activity type="work" start_time="11:29:00" end_time="15:29:00" link="8446" x="528790.0" y="175494.0"/>
    <leg mode="subway" trav_time="00:49:00"/>
    <activity type="shop" start_time="16:18:00" end_time="18:18:00" link="8446" x="525211.0" y="177365.0"/>
    <leg mode="bus" trav_time="01:12:00"/>
    <activity type="home" start_time="19:30:00" end_time="24:00:00" link="8446" x="526994.0" y="177757.0"/>
  </plan>
</person>
<person id="agent_18">
  <attributes>
    <attribute class="java.lang.String" name="subpopulation">low income</attribute>
    <attribute class="java.lang.String" name="gender">female</attribute>
    <attribute class="java.lang.String" name="age">40 to 49</attribute>
    <attribute class="java.lang.String" name="household_zone">Wandsworth 004D</attribute>
    <attribute class="java.lang.String" name="household_LSOA">E02000926</attribute>
    <attribute class="java.lang.String" name="household_LAD">Wandsworth</attribute>
    <attribute class="java.lang.Boolean" name="hasLicence">True</attribute>
    <attribute class="java.lang.Boolean" name="hasBike">True</attribute>
    <attribute class="java.lang.Boolean" name="carAvail">True</attribute>
    <attribute class="java.lang.String" name="hid">agent_18</attribute>
  </attributes>
  <plan selected="yes">
    <activity type="home" start_time="00:00:00" end_time="08:39:00" link="8446" x="526883.0" y="176728.0"/>
    <leg mode="bus" trav_time="00:55:00"/>
    <activity type="work" start_time="09:34:00" end_time="14:34:00" link="8446" x="524535.0" y="179541.0"/>
    <leg mode="rail" trav_time="00:19:00"/>
    <activity type="work" start_time="14:53:00" end_time="19:53:00" link="8446" x="523903.0" y="179191.0"/>
    <leg mode="rail" trav_time="00:50:00"/>
    <activity type="medical" start_time="20:43:00" end_time="21:43:00" link="8446" x="525096.0" y="178289.0"/>
    <leg mode="bus" trav_time="00:45:00"/>
    <activity type="medical" start_time="22:28:00" end_time="23:28:00" link="8446" x="527845.0" y="179298.0"/>
    <leg mode="walk" trav_time="00:30:00"/>
    <activity type="home" start_time="23:58:00" end_time="24:00:00" link="8446" x="526883.0" y="176728.0"/>
  </plan>
</person>